*Heading
** Job name: 2D-Model Model name: Model-1
** Generated by: Abaqus/CAE 2022
*Preprint, echo=NO, model=NO, history=NO, contact=NO
**
** PARTS
**
*Part, name=Part-1
*Node
      1,           0.,           0.
      2,          0.5,           0.
      3,           1.,           0.
      4,          1.5,           0.
      5,           2.,           0.
      6,          2.5,           0.
      7,           3.,           0.
      8,          3.5,           0.
      9,           4.,           0.
     10,          4.5,           0.
     11,           5.,           0.
     12,          5.5,           0.
     13,           6.,           0.
     14,          6.5,           0.
     15,           7.,           0.
     16,          7.5,           0.
     17,           8.,           0.
     18,          8.5,           0.
     19,           9.,           0.
     20,          9.5,           0.
** ... 20281 like lines cut
*Element, type=CPE4R
    1,     1,     2,   203,   202
    2,     2,     3,   204,   203
    3,     3,     4,   205,   204
    4,     4,     5,   206,   205
    5,     5,     6,   207,   206
    6,     6,     7,   208,   207
    7,     7,     8,   209,   208
    8,     8,     9,   210,   209
    9,     9,    10,   211,   210
   10,    10,    11,   212,   211
   11,    11,    12,   213,   212
   12,    12,    13,   214,   213
   13,    13,    14,   215,   214
   14,    14,    15,   216,   215
   15,    15,    16,   217,   216
   16,    16,    17,   218,   217
   17,    17,    18,   219,   218
   18,    18,    19,   220,   219
   19,    19,    20,   221,   220
   20,    20,    21,   222,   221
** ... 19980 like lines cut
*Nset, nset=Set-1, generate
     1,  20301,      1
*Elset, elset=Set-1, generate
     1,  20000,      1
*Nset, nset=Center
 20190,
** Section: Soil
*Solid Section, elset=Set-1, material=Soil
,
*End Part
**  
**
** ASSEMBLY
**
*Assembly, name=Assembly
**  
*Instance, name=Part-1-1, part=Part-1
*End Instance
**  
*Nset, nset=center, instance=Part-1-1
   101, 20201
*Nset, nset=_PickedSet8, internal, instance=Part-1-1, generate
   1,  201,    1
*Elset, elset=_PickedSet8, internal, instance=Part-1-1, generate
   1,  200,    1
*Nset, nset=_PickedSet42, internal, instance=Part-1-1, generate
   1,  201,    1
*Elset, elset=_PickedSet42, internal, instance=Part-1-1, generate
   1,  200,    1
*Nset, nset=_PickedSet43, internal, instance=Part-1-1
     1,   201,   202,   402,   403,   603,   604,   804,   805,  1005,  1006,  1206,  1207,  1407,  1408,  1608
  1609,  1809,  1810,  2010,  2011,  2211,  2212,  2412,  2413,  2613,  2614,  2814,  2815,  3015,  3016,  3216
  3217,  3417,  3418,  3618,  3619,  3819,  3820,  4020,  4021,  4221,  4222,  4422,  4423,  4623,  4624,  4824
  4825,  5025,  5026,  5226,  5227,  5427,  5428,  5628,  5629,  5829,  5830,  6030,  6031,  6231,  6232,  6432
  6433,  6633,  6634,  6834,  6835,  7035,  7036,  7236,  7237,  7437,  7438,  7638,  7639,  7839,  7840,  8040
  8041,  8241,  8242,  8442,  8443,  8643,  8644,  8844,  8845,  9045,  9046,  9246,  9247,  9447,  9448,  9648
  9649,  9849,  9850, 10050, 10051, 10251, 10252, 10452, 10453, 10653, 10654, 10854, 10855, 11055, 11056, 11256
 11257, 11457, 11458, 11658, 11659, 11859, 11860, 12060, 12061, 12261, 12262, 12462, 12463, 12663, 12664, 12864
 12865, 13065, 13066, 13266, 13267, 13467, 13468, 13668, 13669, 13869, 13870, 14070, 14071, 14271, 14272, 14472
 14473, 14673, 14674, 14874, 14875, 15075, 15076, 15276, 15277, 15477, 15478, 15678, 15679, 15879, 15880, 16080
 16081, 16281, 16282, 16482, 16483, 16683, 16684, 16884, 16885, 17085, 17086, 17286, 17287, 17487, 17488, 17688
 17689, 17889, 17890, 18090, 18091, 18291, 18292, 18492, 18493, 18693, 18694, 18894, 18895, 19095, 19096, 19296
 19297, 19497, 19498, 19698, 19699, 19899, 19900, 20100, 20101, 20301
*Elset, elset=_PickedSet43, internal, instance=Part-1-1
     1,   200,   201,   400,   401,   600,   601,   800,   801,  1000,  1001,  1200,  1201,  1400,  1401,  1600
  1601,  1800,  1801,  2000,  2001,  2200,  2201,  2400,  2401,  2600,  2601,  2800,  2801,  3000,  3001,  3200
  3201,  3400,  3401,  3600,  3601,  3800,  3801,  4000,  4001,  4200,  4201,  4400,  4401,  4600,  4601,  4800
  4801,  5000,  5001,  5200,  5201,  5400,  5401,  5600,  5601,  5800,  5801,  6000,  6001,  6200,  6201,  6400
  6401,  6600,  6601,  6800,  6801,  7000,  7001,  7200,  7201,  7400,  7401,  7600,  7601,  7800,  7801,  8000
  8001,  8200,  8201,  8400,  8401,  8600,  8601,  8800,  8801,  9000,  9001,  9200,  9201,  9400,  9401,  9600
  9601,  9800,  9801, 10000, 10001, 10200, 10201, 10400, 10401, 10600, 10601, 10800, 10801, 11000, 11001, 11200
 11201, 11400, 11401, 11600, 11601, 11800, 11801, 12000, 12001, 12200, 12201, 12400, 12401, 12600, 12601, 12800
 12801, 13000, 13001, 13200, 13201, 13400, 13401, 13600, 13601, 13800, 13801, 14000, 14001, 14200, 14201, 14400
 14401, 14600, 14601, 14800, 14801, 15000, 15001, 15200, 15201, 15400, 15401, 15600, 15601, 15800, 15801, 16000
 16001, 16200, 16201, 16400, 16401, 16600, 16601, 16800, 16801, 17000, 17001, 17200, 17201, 17400, 17401, 17600
 17601, 17800, 17801, 18000, 18001, 18200, 18201, 18400, 18401, 18600, 18601, 18800, 18801, 19000, 19001, 19200
 19201, 19400, 19401, 19600, 19601, 19800, 19801, 20000
*End Assembly
*Amplitude, name=Amp-1
           0.01,      0.01345662,            0.02,      0.01346081,           0.022,      0.01346321,           0.025,      0.01346735
          0.029,      0.01347427,            0.03,      0.01347605,           0.032,      0.01347972,           0.035,      0.01348566
          0.036,      0.01348777,            0.04,      0.01349649,           0.042,      0.01350149,           0.044,      0.01350658
          0.045,      0.01350922,           0.046,      0.01351194,           0.048,      0.01351762,            0.05,      0.01352361
          0.055,      0.01353962,            0.06,       0.0135571,           0.065,      0.01357677,           0.067,       0.0135849
           0.07,      0.01359798,           0.075,      0.01362066,            0.08,      0.01363678,           0.085,      0.01366117
           0.09,      0.01368768,           0.095,      0.01371869,             0.1,      0.01375189,            0.11,      0.01381463
           0.12,      0.01389625,            0.13,      0.01401995,           0.133,      0.01404786,            0.14,       0.0141134
           0.15,      0.01422506,            0.16,      0.01434323,            0.17,      0.01457857,            0.18,      0.01476038
           0.19,      0.01503978,             0.2,      0.01515951,            0.22,      0.01544206,            0.24,      0.01708416
           0.25,      0.01761122,            0.26,      0.01800801,            0.28,      0.02184605,            0.29,      0.02363757
            0.3,       0.0257039,            0.32,      0.02980466,            0.34,      0.03233906,            0.35,      0.03319541
           0.36,      0.03205682,            0.38,      0.02901858,             0.4,      0.02894449,            0.42,      0.02464324
           0.44,      0.02915804,            0.45,      0.02949594,            0.46,      0.03074458,            0.48,       0.0324387
            0.5,      0.02826462,            0.55,      0.02927092,             0.6,      0.03828173,            0.65,      0.03527528
          0.667,      0.03296438,             0.7,      0.03450376,            0.75,      0.03454985,             0.8,      0.03796255
           0.85,      0.03860392,             0.9,      0.03773828,            0.95,      0.04545476,              1.,      0.06009396
            1.1,      0.05566574,             1.2,       0.0480548,             1.3,      0.03532637,             1.4,      0.02473935
            1.5,      0.02190662,             1.6,      0.01634198,             1.7,      0.01449113,             1.8,      0.01278183
            1.9,      0.01089971,              2.,      0.01004943,             2.2,      0.01142041,             2.4,      0.01000285
** ... 8 like lines cut
*Amplitude, name=Amp-2
             0.,              0.,         0.12383,    -0.000420626,         0.24766,    -0.000421867,         0.37149,     -0.00042097
        0.49532,    -0.000408943,         0.61915,    -0.000395303,         0.74298,    -0.000371124,         0.86681,    -0.000346239
        0.99064,    -0.000315416,         1.11447,     -0.00027754,          1.2383,    -0.000235186,         1.36213,    -0.000194516
        1.48596,    -0.000146983,         1.60979,    -0.000102774,         1.73362,    -5.32331e-05,         1.85745,    -8.67516e-06
        1.98128,     3.96369e-05,         2.10511,     8.13156e-05,         2.22894,     0.000125242,         2.35277,     0.000161021
         2.4766,      0.00019766,         2.60043,     0.000224764,         2.72426,     0.000251574,         2.84809,     0.000267785
        2.97192,     0.000282853,         3.09575,     0.000286503,         3.21958,      0.00028854,         3.34341,     0.000278797
        3.46724,     0.000270512,         3.59107,     0.000257033,          3.7149,     0.000248727,         3.83873,     0.000235372
        3.96256,     0.000227282,         4.08639,     0.000214068,         4.21022,     0.000206193,         4.33405,     0.000193159
        4.45788,     0.000185524,         4.58171,      0.00017269,         4.70554,     0.000165325,         4.82937,     0.000152718
         4.9532,     0.000145643,         5.07703,     0.000133308,         5.20086,     0.000126505,         5.32469,     0.000114395
        5.44852,     0.000107945,         5.57235,      9.6122e-05,         5.69618,     9.00294e-05,         5.82001,     7.85128e-05
        5.94384,     7.27753e-05,         6.06767,     6.15688e-05,          6.1915,     5.62168e-05,         6.31533,     4.53752e-05
        6.43916,     4.03864e-05,         6.56299,     2.99549e-05,         6.68682,     2.51522e-05,         6.81065,    -4.37081e-06
        6.93448,     1.14387e-05,         7.05831,     1.19021e-06,         7.18214,    -2.18543e-06,         7.30597,    -1.17739e-05
         7.4298,    -1.47255e-05,         7.55363,    -2.39037e-05,         7.67746,    -2.63928e-05,         7.80129,    -3.51817e-05
        7.92512,    -3.71925e-05,         8.04895,    -4.55353e-05,         8.17278,    -4.70426e-05,         8.29661,    -5.49666e-05
        8.42044,    -5.59421e-05,         8.54427,    -6.34391e-05,          8.6681,     -6.3881e-05,         8.79193,    -7.09297e-05
        8.91576,     -7.0822e-05,         9.03959,    -7.74493e-05,         9.16342,    -7.68065e-05,         9.28725,    -8.29716e-05
        9.41108,     -8.1768e-05,         9.53491,    -8.75023e-05,         9.65874,    -8.57247e-05,         9.78257,    -9.10425e-05
** ... 114 like lines cut
*Amplitude, name=Kobe
             0.,     1.57557e-05,            0.02,     1.55801e-05,            0.04,     1.54789e-05,            0.06,     1.53222e-05
           0.08,     1.52011e-05,             0.1,     1.50363e-05,            0.12,     1.49407e-05,            0.14,     1.47728e-05
           0.16,     1.46614e-05,            0.18,     1.44934e-05,             0.2,     1.44041e-05,            0.22,     1.41638e-05
           0.24,      1.4063e-05,            0.26,     1.38926e-05,            0.28,     1.37827e-05,             0.3,     1.36202e-05
           0.32,     1.35162e-05,            0.34,     1.33533e-05,            0.36,      1.3231e-05,            0.38,     1.30666e-05
            0.4,     1.29661e-05,            0.42,     1.30627e-05,            0.44,     1.29611e-05,            0.46,     1.28111e-05
           0.48,      1.3061e-05,             0.5,     1.29394e-05,            0.52,     1.28799e-05,            0.54,     1.23373e-05
           0.56,     1.22565e-05,            0.58,      1.2113e-05,             0.6,     1.15168e-05,            0.62,     1.13654e-05
           0.64,     1.06868e-05,            0.66,     1.05029e-05,            0.68,     1.03804e-05,             0.7,     1.01945e-05
           0.72,      1.0783e-05,            0.74,     1.06278e-05,            0.76,     1.13247e-05,            0.78,     1.12052e-05
            0.8,     1.11474e-05,            0.82,     1.10211e-05,            0.84,     1.19109e-05,            0.86,     1.08005e-05
           0.88,     1.07306e-05,             0.9,     1.05928e-05,            0.92,     9.35964e-06,            0.94,     9.19675e-06
           0.96,     9.09161e-06,            0.98,     8.94195e-06,              1.,     8.84222e-06,            1.02,     8.69861e-06
           1.04,     8.60527e-06,            1.06,     9.98183e-06,            1.08,     9.90498e-06,             1.1,     9.79874e-06
           1.12,     9.71722e-06,            1.14,     9.59991e-06,            1.16,     9.52813e-06,            1.18,     9.42249e-06
            1.2,     9.34539e-06,            1.22,     9.23996e-06,            1.24,     9.17644e-06,            1.26,     6.94665e-06
           1.28,     6.84859e-06,             1.3,     6.71014e-06,            1.32,     6.63172e-06,            1.34,     6.48946e-06
           1.36,      6.3808e-06,            1.38,     6.27253e-06,             1.4,     6.17156e-06,            1.42,     8.73234e-06
           1.44,     8.62102e-06,            1.46,     8.53458e-06,            1.48,     8.45722e-06,             1.5,     8.35452e-06
           1.52,     8.26868e-06,            1.54,     8.17294e-06,            1.56,     8.09283e-06,            1.58,     4.72656e-06
** ... 580 like lines cut
*Amplitude, name=kobe-edited
             0.,     1.57557e-05,             0.1,     1.50363e-05,             0.2,     1.44041e-05,             0.3,     1.36202e-05
            0.4,     1.29661e-05,             0.5,     1.29394e-05,             0.6,     1.15168e-05,             0.7,     1.01945e-05
            0.8,     1.11474e-05,             0.9,     1.05928e-05,              1.,     8.84222e-06,             1.1,     9.79874e-06
            1.2,     9.34539e-06,             1.3,     6.71014e-06,             1.4,     6.17156e-06,             1.5,     8.35452e-06
            1.6,      4.6671e-06,             1.7,     4.12278e-06,             1.8,     7.64131e-06,             1.9,     7.24134e-06
             2.,     2.10341e-06,             2.1,      6.9512e-06,             2.2,     5.65309e-07,             2.3,     6.79158e-06
            2.4,    -2.65811e-07,             2.5,      6.8109e-06,             2.6,    -1.95299e-06,             2.7,    -2.19014e-06
            2.8,     6.42509e-06,             2.9,    -4.13087e-06,              3.,    -1.44248e-05,             3.1,     7.19575e-06
            3.2,     6.54307e-06,             3.3,    -6.54594e-06,             3.4,     -1.9049e-05,             3.5,     7.16356e-06
            3.6,    -7.92523e-06,             3.7,    -0.000169348,             3.8,    -8.18968e-05,             3.9,    -0.000780622
             4.,      0.00050605,             4.1,     -0.00088277,             4.2,     0.002243228,             4.3,    -0.002256298
            4.4,    -0.005565618,             4.5,     0.006576675,             4.6,    -0.004609772,             4.7,    -0.005794678
            4.8,      0.02646377,             4.9,     0.008971359,              5.,     -0.01695148,             5.1,     -0.02381198
            5.2,    -0.000325005,             5.3,    -0.001438366,             5.4,     -0.01404503,             5.5,     -0.01159464
            5.6,     -0.02021762,             5.7,      0.01364974,             5.8,      0.03512191,             5.9,      0.02465109
             6.,      0.02192016,             6.1,     -0.01234486,             6.2,     0.007414751,             6.3,    -0.004231008
            6.4,      0.01446665,             6.5,      0.02617413,             6.6,     -0.01378258,             6.7,     -0.06019417
            6.8,    -0.007162241,             6.9,      -0.0210572,              7.,      0.03972169,             7.1,    -0.009015602
            7.2,      0.04484604,             7.3,       0.2419681,             7.4,       0.1708921,             7.5,      -0.5037678
            7.6,      -0.5848025,             7.7,      0.04817499,             7.8,       0.2157534,             7.9,      0.01377516
** ... 100 like lines cut
** 
** MATERIALS
** 
*Material, name=Soil
*Damping, beta=0.01
*Density
1800.,
*Elastic
 5e+06, 0.35
*Mohr Coulomb
25.,5.
*Mohr Coulomb Hardening
5000.,0.
*Material, name=bedrock
*Density
2500.,
*Elastic
 1.5e+10, 0.3
** 
** BOUNDARY CONDITIONS
** 
** Name: EQ-acceleration Type: Acceleration/Angular acceleration
*Boundary, type=ACCELERATION
_PickedSet8, 1, 1
** Name: bottom Type: Displacement/Rotation
*Boundary
_PickedSet42, 2, 2
** Name: roller Type: Displacement/Rotation
*Boundary
_PickedSet43, 1, 1
** ----------------------------------------------------------------
** 
** STEP: Step-1
** 
*Step, name=Step-1, nlgeom=YES
*Dynamic, Explicit
, 48.
*Bulk Viscosity
0.06, 1.2
** 
** BOUNDARY CONDITIONS
** 
** Name: EQ-acceleration Type: Acceleration/Angular acceleration
*Boundary, op=NEW, amplitude=Kobe, type=ACCELERATION
_PickedSet8, 1, 1, 9.81
** Name: bottom Type: Displacement/Rotation
*Boundary, op=NEW
_PickedSet42, 2, 2
** Name: roller Type: Displacement/Rotation
*Boundary, op=NEW
_PickedSet43, 1, 1
** 
** OUTPUT REQUESTS
** 
*Restart, write, number interval=1, time marks=NO
** 
** FIELD OUTPUT: F-Output-1
** 
*Output, field, time interval=0.02
*Node Output
A, 
** 
** HISTORY OUTPUT: H-Output-1
** 
*Output, history, frequency=1
*Node Output, nset=center
U1, U2, U3, UR1, UR2, UR3, V1, V2
V3, VR1, VR2, VR3
*End Step
