*Heading
** Job name: 3D-Model Model name: Representative_3D_Model
** Generated by: Abaqus/CAE 2022
*Preprint, echo=NO, model=NO, history=NO, contact=NO
**
** PARTS
**
*Part, name="Layered Soil Quarter"
*Node
      1,           0.,           1.,          18.
      2,           1.,           0.,          18.
      3,           0.,           0.,          18.
      4,           0.,           1.,           8.
      5,           1.,           0.,           8.
      6,           0.,           0.,           8.
      7,           0.,          50.,           8.
      8,          25.,          50.,           8.
      9,          25.,           0.,           8.
     10,           0.,          50.,          18.
     11,          25.,          50.,          18.
     12,          25.,           0.,          18.
     13,           0.,           1.,           0.
     14,           1.,           0.,           0.
     15,           0.,           0.,           0.
     16,          25.,          50.,           0.
     17,           0.,          50.,           0.
     18,          25.,           0.,           0.
     19,           1.,           0.,          24.
     20,           0.,           1.,          24.
** ... 35205 like lines cut
*Element, type=C3D8R
 1,  1149,    43,  1140, 10513,    41,     1,    42,  1139
 2,  1150,    44,  1141, 10512,  1149,    43,  1140, 10513
 3,  1151,    45,  1142, 10511,  1150,    44,  1141, 10512
 4,  1152,    46,  1143, 10510,  1151,    45,  1142, 10511
 5,  1153,    47,  1144, 10509,  1152,    46,  1143, 10510
 6,  1158,    61,  1149, 10513,    52,     2,    41,  1139
 7,  1159,    60,  1150, 10512,  1158,    61,  1149, 10513
 8,  1160,    59,  1151, 10511,  1159,    60,  1150, 10512
 9,  1161,    58,  1152, 10510,  1160,    59,  1151, 10511
10,  1162,    57,  1153, 10509,  1161,    58,  1152, 10510
11,  1140,    62,  1158, 10513,    42,     3,    52,  1139
12,  1141,    63,  1159, 10512,  1140,    62,  1158, 10513
13,  1142,    64,  1160, 10511,  1141,    63,  1159, 10512
14,  1143,    65,  1161, 10510,  1142,    64,  1160, 10511
15,  1144,    66,  1162, 10509,  1143,    65,  1161, 10510
16,  1167,    72,  1145, 10514,    71,     4,    51,  1154
17, 10514,  1145,  1146, 10515,  1154,    51,    50,  1155
18, 10515,  1146,  1147, 10516,  1155,    50,    49,  1156
19, 10516,  1147,  1148, 10517,  1156,    49,    48,  1157
20, 10517,  1148,  1144, 10509,  1157,    48,    47,  1153
** ... 30076 like lines cut
*Element, type=AC3D8R
30097, 5367, 5368,  203,  204, 8976, 8977,  810,  811
30098, 5368, 5369,  202,  203, 8977, 8978,  809,  810
30099, 5369, 5370,  201,  202, 8978, 8979,  808,  809
30100, 5370, 5371,  200,  201, 8979, 8980,  807,  808
30101, 5371, 5372,  199,  200, 8980, 8981,  806,  807
30102, 5372, 5373,  198,  199, 8981, 8982,  805,  806
30103, 5373, 5374,  197,  198, 8982, 8983,  804,  805
30104, 5374, 5375,  196,  197, 8983, 8984,  803,  804
30105, 5375, 5376,  195,  196, 8984, 8985,  802,  803
30106, 5376, 5377,  194,  195, 8985, 8986,  801,  802
30107, 5377, 5378,  193,  194, 8986, 8987,  800,  801
30108, 5378, 5379,  192,  193, 8987, 8988,  799,  800
30109, 5379, 5380,  191,  192, 8988, 8989,  798,  799
30110, 5380, 5381,  190,  191, 8989, 8990,  797,  798
30111, 5381, 5382,  189,  190, 8990, 8991,  796,  797
30112, 5382, 5383,  188,  189, 8991, 8992,  795,  796
30113, 5383, 5384,  187,  188, 8992, 8993,  794,  795
30114, 5384, 5385,  186,  187, 8993, 8994,  793,  794
30115, 5385, 5386,  185,  186, 8994, 8995,  792,  793
30116, 5386, 5387,  184,  185, 8995, 8996,  791,  792
** ... 1780 like lines cut
*Nset, nset=Layer1
     4,     5,     6,     7,     8,     9,    13,    14,    15,    16,    17,    18,    25,    26,    27,    28
    29,    30,    31,    32,    71,    72,    73,    74,    75,    76,    77,    78,    79,    80,    81,    82
    83,    84,    85,    86,    87,    88,    89,    90,    91,    92,    93,    94,    95,    96,    97,    98
    99,   100,   101,   102,   103,   104,   105,   106,   107,   108,   109,   110,   111,   112,   113,   114
   115,   116,   117,   118,   119,   120,   121,   122,   123,   124,   125,   126,   127,   128,   129,   130
   131,   132,   133,   134,   135,   136,   137,   138,   139,   140,   141,   142,   143,   144,   145,   146
   156,   157,   158,   159,   160,   161,   162,   163,   164,   165,   166,   167,   168,   169,   170,   171
   172,   173,   174,   175,   176,   177,   178,   179,   180,   181,   182,   183,   184,   185,   186,   187
   188,   189,   190,   191,   192,   193,   194,   195,   196,   197,   198,   199,   200,   201,   202,   203
   204,   214,   215,   216,   217,   218,   219,   220,   221,   222,   223,   224,   225,   226,   227,   228
   229,   230,   231,   232,   233,   234,   235,   236,   237,   393,   394,   395,   396,   397,   398,   399
   400,   401,   402,   403,   404,   405,   406,   407,   408,   409,   410,   411,   412,   413,   414,   415
   416,   417,   418,   419,   420,   421,   422,   423,   424,   425,   426,   427,   428,   429,   430,   431
   432,   433,   434,   435,   436,   437,   438,   439,   440,   441,   442,   443,   444,   445,   446,   447
   448,   449,   450,   451,   452,   453,   454,   455,   456,   457,   458,   459,   460,   461,   462,   463
   464,   465,   466,   467,   468,   469,   470,   471,   472,   473,   474,   475,   476,   477,   478,   479
   480,   481,   482,   483,   484,   485,   486,   487,   488,   489,   490,   491,   492,   493,   494,   495
   496,   497,   498,   499,   500,   501,   502,   503,   504,   505,   506,   507,   508,   509,   510,   511
   512,   513,   514,   515,   516,   517,   518,   519,   520,   521,   522,   523,   524,   525,   526,   527
   528,   529,   530,   531,   532,   533,   534,   535,   536,   537,   538,   539,   540,   541,   542,   543
** ... 773 like lines cut
*Elset, elset=Layer1
 12541, 12542, 12543, 12544, 12545, 12546, 12547, 12548, 12549, 12550, 12551, 12552, 12553, 12554, 12555, 12556
 12557, 12558, 12559, 12560, 12561, 12562, 12563, 12564, 12565, 12566, 12567, 12568, 12569, 12570, 12571, 12572
 12573, 12574, 12575, 12576, 12577, 12578, 12579, 12580, 12581, 12582, 12583, 12584, 12585, 12586, 12587, 12588
 12589, 12590, 12591, 12592, 12593, 12594, 12595, 12596, 12597, 12598, 12599, 12600, 12601, 12602, 12603, 12604
 12605, 12606, 12607, 12608, 12609, 12610, 12611, 12612, 12613, 12614, 12615, 12616, 12617, 12618, 12619, 12620
 12621, 12622, 12623, 12624, 12625, 12626, 12627, 12628, 12629, 12630, 12631, 12632, 12633, 12634, 12635, 12636
 12637, 12638, 12639, 12640, 12641, 12642, 12643, 12644, 12645, 12646, 12647, 12648, 12649, 12650, 12651, 12652
 12653, 12654, 12655, 12656, 12657, 12658, 12659, 12660, 12661, 12662, 12663, 12664, 12665, 12666, 12667, 12668
 12669, 12670, 12671, 12672, 12673, 12674, 12675, 12676, 12677, 12678, 12679, 12680, 12681, 12682, 12683, 12684
 12685, 12686, 12687, 12688, 12689, 12690, 12691, 12692, 12693, 12694, 12695, 12696, 12697, 12698, 12699, 12700
 12701, 12702, 12703, 12704, 12705, 12706, 12707, 12708, 12709, 12710, 12711, 12712, 12713, 12714, 12715, 12716
 12717, 12718, 12719, 12720, 12721, 12722, 12723, 12724, 12725, 12726, 12727, 12728, 12729, 12730, 12731, 12732
 12733, 12734, 12735, 12736, 12737, 12738, 12739, 12740, 12741, 12742, 12743, 12744, 12745, 12746, 12747, 12748
 12749, 12750, 12751, 12752, 12753, 12754, 12755, 12756, 12757, 12758, 12759, 12760, 12761, 12762, 12763, 12764
 12765, 12766, 12767, 12768, 12769, 12770, 12771, 12772, 12773, 12774, 12775, 12776, 12777, 12778, 12779, 12780
 12781, 12782, 12783, 12784, 12785, 12786, 12787, 12788, 12789, 12790, 12791, 12792, 12793, 12794, 12795, 12796
 12797, 12798, 12799, 12800, 12801, 12802, 12803, 12804, 12805, 12806, 12807, 12808, 12809, 12810, 12811, 12812
 12813, 12814, 12815, 12816, 12817, 12818, 12819, 12820, 12821, 12822, 12823, 12824, 12825, 12826, 12827, 12828
 12829, 12830, 12831, 12832, 12833, 12834, 12835, 12836, 12837, 12838, 12839, 12840, 12841, 12842, 12843, 12844
 12845, 12846, 12847, 12848, 12849, 12850, 12851, 12852, 12853, 12854, 12855, 12856, 12857, 12858, 12859, 12860
** ... 645 like lines cut
*Nset, nset=Layer2
     1,     2,     3,     4,     5,     6,     7,     8,     9,    10,    11,    12,    25,    26,    29,    30
    33,    34,    35,    36,    41,    42,    43,    44,    45,    46,    47,    48,    49,    50,    51,    52
    53,    54,    55,    56,    57,    58,    59,    60,    61,    62,    63,    64,    65,    66,    67,    68
    69,    70,    71,    72,    73,    74,    75,    76,    77,    78,    79,    80,    81,    82,    83,    84
    85,    86,    87,    88,    89,    90,    91,    92,    93,    94,    95,    96,    97,    98,    99,   100
   101,   102,   103,   104,   105,   106,   107,   108,   109,   110,   111,   112,   113,   114,   115,   116
   117,   118,   119,   120,   121,   122,   123,   124,   125,   126,   127,   128,   129,   130,   131,   132
   133,   134,   135,   136,   137,   138,   139,   140,   141,   142,   143,   144,   145,   146,   147,   148
   149,   150,   151,   152,   153,   154,   155,   156,   157,   158,   159,   160,   161,   162,   163,   164
   165,   166,   167,   168,   169,   170,   171,   172,   173,   174,   175,   176,   177,   178,   179,   180
   181,   182,   183,   184,   185,   186,   187,   188,   189,   190,   191,   192,   193,   194,   195,   196
   197,   198,   199,   200,   201,   202,   203,   204,   205,   206,   207,   208,   209,   210,   211,   212
   213,   214,   215,   216,   217,   218,   219,   220,   221,   222,   223,   224,   225,   226,   227,   228
   229,   230,   231,   232,   233,   234,   235,   236,   237,   238,   239,   240,   241,   242,   243,   244
   245,   246,   247,   248,   249,   250,   251,   252,   253,   254,   255,   256,   257,   258,   259,   260
   261,   262,   263,   264,   265,   266,   267,   268,   269,   270,   271,   272,   273,   274,   275,   276
   277,   278,   279,   280,   281,   282,   283,   284,   285,   286,   287,   288,   289,   290,   291,   292
   293,   294,   295,   296,   297,   298,   299,   300,   301,   302,   303,   304,   305,   306,   307,   308
   309,   310,   311,   312,   313,   314,   315,   316,   317,   318,   319,   320,   321,   322,   323,   324
   325,   326,   327,   328,   329,   330,   331,   332,   333,   334,   335,   336,   337,   338,   339,   340
** ... 949 like lines cut
*Elset, elset=Layer2
     1,     2,     3,     4,     5,     6,     7,     8,     9,    10,    11,    12,    13,    14,    15,    16
    17,    18,    19,    20,    21,    22,    23,    24,    25,    26,    27,    28,    29,    30,    31,    32
    33,    34,    35,    36,    37,    38,    39,    40,    41,    42,    43,    44,    45,    46,    47,    48
    49,    50,    51,    52,    53,    54,    55,    56,    57,    58,    59,    60,    61,    62,    63,    64
    65,    66,    67,    68,    69,    70,    71,    72,    73,    74,    75,    76,    77,    78,    79,    80
    81,    82,    83,    84,    85,    86,    87,    88,    89,    90,    91,    92,    93,    94,    95,    96
    97,    98,    99,   100,   101,   102,   103,   104,   105,   106,   107,   108,   109,   110,   111,   112
   113,   114,   115,   116,   117,   118,   119,   120,   121,   122,   123,   124,   125,   126,   127,   128
   129,   130,   131,   132,   133,   134,   135,   136,   137,   138,   139,   140,   141,   142,   143,   144
   145,   146,   147,   148,   149,   150,   151,   152,   153,   154,   155,   156,   157,   158,   159,   160
   161,   162,   163,   164,   165,   166,   167,   168,   169,   170,   171,   172,   173,   174,   175,   176
   177,   178,   179,   180,   181,   182,   183,   184,   185,   186,   187,   188,   189,   190,   191,   192
   193,   194,   195,   196,   197,   198,   199,   200,   201,   202,   203,   204,   205,   206,   207,   208
   209,   210,   211,   212,   213,   214,   215,   216,   217,   218,   219,   220,   221,   222,   223,   224
   225,   226,   227,   228,   229,   230,   231,   232,   233,   234,   235,   236,   237,   238,   239,   240
   241,   242,   243,   244,   245,   246,   247,   248,   249,   250,   251,   252,   253,   254,   255,   256
   257,   258,   259,   260,   261,   262,   263,   264,   265,   266,   267,   268,   269,   270,   271,   272
   273,   274,   275,   276,   277,   278,   279,   280,   281,   282,   283,   284,   285,   286,   287,   288
   289,   290,   291,   292,   293,   294,   295,   296,   297,   298,   299,   300,   301,   302,   303,   304
   305,   306,   307,   308,   309,   310,   311,   312,   313,   314,   315,   316,   317,   318,   319,   320
** ... 811 like lines cut
*Nset, nset=Layer3
     1,     2,     3,    10,    11,    12,    19,    20,    21,    22,    23,    24,    33,    34,    35,    36
    37,    38,    39,    40,    41,    42,    52,   247,   248,   249,   250,   251,   252,   253,   254,   255
   256,   257,   258,   259,   260,   261,   262,   263,   264,   265,   266,   267,   268,   269,   270,   271
   272,   273,   274,   275,   276,   277,   278,   279,   280,   281,   282,   283,   284,   285,   286,   287
   288,   289,   290,   291,   292,   293,   294,   295,   296,   297,   298,   299,   300,   301,   302,   303
   304,   305,   306,   307,   308,   309,   310,   311,   312,   313,   314,   315,   316,   317,   318,   319
   320,   321,   322,   323,   324,   325,   326,   327,   328,   329,   330,   331,   332,   333,   334,   335
   336,   337,   338,   339,   340,   341,   342,   343,   344,   345,   346,   347,   348,   349,   350,   351
   352,   353,   354,   355,   356,   357,   358,   359,   360,   361,   362,   363,   364,   365,   366,   367
   368,   369,   370,   371,   372,   373,   374,   375,   376,   377,   378,   379,   380,   381,   382,   383
   384,   385,   386,   387,   388,   389,   390,   391,   392,   584,   585,   586,   587,   588,   589,   590
   591,   592,   593,   594,   595,   596,   597,   598,   599,   600,   601,   602,   603,   604,   605,   606
   607,   608,   609,   610,   611,   612,   613,   614,   615,   616,   617,   618,   619,   620,   621,   622
   623,   624,   625,   626,   627,   628,   629,   630,   631,   632,   633,   634,   635,   636,   637,   638
   639,   640,   641,   642,   643,   644,   645,   646,   647,   648,   649,   650,   651,   652,   653,   654
   655,   656,   657,   658,   659,   660,   661,   662,   663,   664,   665,   666,   667,   668,   669,   670
   671,   672,   673,   674,   675,   676,   677,   678,   679,   680,   681,   682,   683,   684,   685,   686
   687,   688,   689,   690,   691,   692,   693,   694,   695,   696,   697,   698,   699,   700,   701,   702
   703,   704,   705,   706,   707,   708,   709,   710,   711,   712,   713,   714,   715,   716,   717,   718
   719,   720,   721,   722,   723,   724,   725,   726,   727,   728,   729,   730,   731,   732,   733,   734
** ... 597 like lines cut
*Elset, elset=Layer3
 22573, 22574, 22575, 22576, 22577, 22578, 22579, 22580, 22581, 22582, 22583, 22584, 22585, 22586, 22587, 22588
 22589, 22590, 22591, 22592, 22593, 22594, 22595, 22596, 22597, 22598, 22599, 22600, 22601, 22602, 22603, 22604
 22605, 22606, 22607, 22608, 22609, 22610, 22611, 22612, 22613, 22614, 22615, 22616, 22617, 22618, 22619, 22620
 22621, 22622, 22623, 22624, 22625, 22626, 22627, 22628, 22629, 22630, 22631, 22632, 22633, 22634, 22635, 22636
 22637, 22638, 22639, 22640, 22641, 22642, 22643, 22644, 22645, 22646, 22647, 22648, 22649, 22650, 22651, 22652
 22653, 22654, 22655, 22656, 22657, 22658, 22659, 22660, 22661, 22662, 22663, 22664, 22665, 22666, 22667, 22668
 22669, 22670, 22671, 22672, 22673, 22674, 22675, 22676, 22677, 22678, 22679, 22680, 22681, 22682, 22683, 22684
 22685, 22686, 22687, 22688, 22689, 22690, 22691, 22692, 22693, 22694, 22695, 22696, 22697, 22698, 22699, 22700
 22701, 22702, 22703, 22704, 22705, 22706, 22707, 22708, 22709, 22710, 22711, 22712, 22713, 22714, 22715, 22716
 22717, 22718, 22719, 22720, 22721, 22722, 22723, 22724, 22725, 22726, 22727, 22728, 22729, 22730, 22731, 22732
 22733, 22734, 22735, 22736, 22737, 22738, 22739, 22740, 22741, 22742, 22743, 22744, 22745, 22746, 22747, 22748
 22749, 22750, 22751, 22752, 22753, 22754, 22755, 22756, 22757, 22758, 22759, 22760, 22761, 22762, 22763, 22764
 22765, 22766, 22767, 22768, 22769, 22770, 22771, 22772, 22773, 22774, 22775, 22776, 22777, 22778, 22779, 22780
 22781, 22782, 22783, 22784, 22785, 22786, 22787, 22788, 22789, 22790, 22791, 22792, 22793, 22794, 22795, 22796
 22797, 22798, 22799, 22800, 22801, 22802, 22803, 22804, 22805, 22806, 22807, 22808, 22809, 22810, 22811, 22812
 22813, 22814, 22815, 22816, 22817, 22818, 22819, 22820, 22821, 22822, 22823, 22824, 22825, 22826, 22827, 22828
 22829, 22830, 22831, 22832, 22833, 22834, 22835, 22836, 22837, 22838, 22839, 22840, 22841, 22842, 22843, 22844
 22845, 22846, 22847, 22848, 22849, 22850, 22851, 22852, 22853, 22854, 22855, 22856, 22857, 22858, 22859, 22860
 22861, 22862, 22863, 22864, 22865, 22866, 22867, 22868, 22869, 22870, 22871, 22872, 22873, 22874, 22875, 22876
 22877, 22878, 22879, 22880, 22881, 22882, 22883, 22884, 22885, 22886, 22887, 22888, 22889, 22890, 22891, 22892
** ... 479 like lines cut
*Nset, nset=Surface-node
 8263,
** Section: Layer2
*Solid Section, elset=Layer2, material=Layer2
,
** Section: Layer1
*Solid Section, elset=Layer1, material=Layer1
,
** Section: Layer3
*Solid Section, elset=Layer3, material=Layer3
,
*End Part
**  
*Part, name="Tamper Quarter"
*Node
      1,           0.,           0.,          0.5
      2,           0.,           0.,           1.
      3,           0.,         0.75,           1.
      4,           0.,         0.75,          0.5
      5,         0.75,           0.,          0.5
      6,         0.75,           0.,           1.
      7,  0.606510222,  0.606510222,           1.
      8,  0.598826706,  0.598316073,          0.5
      9,           0.,           1.,           1.
     10,           0.,           1.,          0.5
     11,  0.707106769,  0.707106769,           1.
     12,  0.707150936,  0.707062602,          0.5
     13,           0.,           1.,           0.
     14,           0.,         0.75,           0.
     15,  0.707106769,  0.707106769,           0.
     16,  0.614954293,   0.60280782,           0.
     17,           0.,           0.,           0.
     18,         0.75,           0.,           0.
     19,           1.,           0.,           1.
     20,           1.,           0.,          0.5
** ... 95 like lines cut
*Element, type=C3D8R
 1,  36,  84, 108,  76,   1,  22,  72,  27
 2,  84,  40,  80, 108,  22,   2,  23,  72
 3,  76, 108, 109,  77,  27,  72,  73,  26
 4, 108,  80,  81, 109,  72,  23,  24,  73
 5,  77, 109,  86,  35,  26,  73,  25,   4
 6, 109,  81,  39,  86,  73,  24,   3,  25
 7,  37,  85, 110,  78,  36,  84, 108,  76
 8,  85,  41,  82, 110,  84,  40,  80, 108
 9,  78, 110, 111,  79,  76, 108, 109,  77
10, 110,  82,  83, 111, 108,  80,  81, 109
11,  79, 111,  87,  34,  77, 109,  86,  35
12, 111,  83,  38,  87, 109,  81,  39,  86
13,   5,  28,  74,  33,  37,  85, 110,  78
14,  28,   6,  29,  74,  85,  41,  82, 110
15,  33,  74,  75,  32,  78, 110, 111,  79
16,  74,  29,  30,  75, 110,  82,  83, 111
17,  32,  75,  31,   8,  79, 111,  87,  34
18,  75,  30,   7,  31, 111,  83,  38,  87
19,  39,  46,  88,  86,   3,   9,  42,  25
20,  86,  88,  45,  35,  25,  42,  10,   4
** ... 40 like lines cut
*Nset, nset="Tamper Quarter", generate
   1,  115,    1
*Elset, elset="Tamper Quarter", generate
  1,  60,   1
** Section: Tamper
*Solid Section, elset="Tamper Quarter", material=Steel
,
*End Part
**  
**
** ASSEMBLY
**
*Assembly, name=Assembly
**  
*Instance, name="Layered Soil Quarter-1", part="Layered Soil Quarter"
2.93915231795365e-15, -1.79971173919423e-31,         -24.
*End Instance
**  
*Instance, name="Tamper Quarter-1", part="Tamper Quarter"
*End Instance
**  
*Nset, nset=_PickedSet398, internal, instance="Tamper Quarter-1"
  9, 10, 13, 19, 20, 21, 42, 48, 68, 69
*Elset, elset=_PickedSet398, internal, instance="Tamper Quarter-1"
 19, 20, 25, 26, 49, 52, 55, 56
*Nset, nset=_PickedSet439, internal, instance="Layered Soil Quarter-1"
   13,   14,   15,   16,   17,   18,   27,   28,   31,   32,  393,  394,  402,  438,  439,  440
  441,  442,  443,  444,  445,  446,  447,  448,  449,  450,  451,  452,  453,  454,  455,  456
  457,  458,  459,  460,  461,  462,  463,  464,  465,  466,  467,  468,  469,  470,  471,  472
  473,  474,  475,  476,  477,  478,  479,  480,  481,  482,  483,  484,  485,  486,  487,  488
  489,  490,  491,  492,  493,  494,  495,  496,  497,  498,  499,  500,  501,  502,  503,  504
  505,  506,  507,  508,  509,  510,  511,  512,  513,  514,  515,  516,  517,  518,  519,  520
  521,  522,  523,  524,  525,  526,  527,  528,  529,  530,  531,  532,  533,  534,  535,  536
  537,  538,  539,  540,  541,  542,  543,  544,  545,  546,  547,  548,  549,  550,  551,  552
  553,  554,  555,  556,  557,  558,  559,  560,  561,  562,  563,  564,  565,  566,  567,  568
  569,  570,  571,  572,  573,  574,  575,  576,  577,  578,  579,  580,  581,  582,  583,  819
  820,  821,  822,  823,  824,  825,  826,  827,  828,  829,  830,  831,  832,  833,  834,  835
  836,  837,  838,  839,  840,  841,  842,  843,  844,  845,  846,  847,  848,  849,  850,  851
  852,  853,  854,  855,  856,  857,  858,  859,  860,  861,  862,  863,  864,  865,  866,  867
  906,  907,  908,  909,  910,  911,  912,  913,  914,  915,  916,  917,  918,  919,  920,  921
  922,  923,  924,  925,  926,  927,  928,  929, 4834, 5878, 5879, 5880, 5881, 5882, 5883, 5884
 5885, 5886, 5887, 5888, 5889, 5890, 5891, 5892, 5893, 5894, 5895, 5896, 5897, 5898, 5899, 5900
 5901, 5902, 5903, 5904, 5905, 5906, 5907, 5908, 5909, 5910, 5911, 5912, 5913, 5914, 5915, 5916
 5917, 5918, 5919, 5920, 5921, 5922, 5923, 5924, 5925, 5926, 5927, 5928, 5929, 5930, 5931, 5932
 5933, 5934, 5935, 5936, 5937, 5938, 5939, 5940, 5941, 5942, 5943, 5944, 5945, 5946, 5947, 5948
 5949, 5950, 5951, 5952, 5953, 5954, 5955, 5956, 5957, 5958, 5959, 5960, 5961, 5962, 5963, 5964
** ... 69 like lines cut
*Elset, elset=_PickedSet439, internal, instance="Layered Soil Quarter-1"
 12541, 12545, 12549, 17572, 17576, 17580, 17584, 17588, 17592, 17596, 17600, 17604, 17608, 17612, 17616, 17620
 17624, 17628, 17632, 17636, 17640, 17644, 17648, 17652, 17656, 17660, 17664, 17668, 17672, 17676, 17680, 17684
 17688, 17692, 17696, 17700, 17704, 17708, 17712, 17716, 17720, 17724, 17728, 17732, 17736, 17740, 17744, 17748
 17752, 17756, 17760, 17764, 17768, 17772, 17776, 17780, 17784, 17788, 17792, 17796, 17800, 17804, 17808, 17812
 17816, 17820, 17824, 17828, 17832, 17836, 17840, 17844, 17848, 17852, 17856, 17860, 17864, 17868, 17872, 17876
 17880, 17884, 17888, 17892, 17896, 17900, 17904, 17908, 17912, 17916, 17920, 17924, 17928, 17932, 17936, 17940
 17944, 17948, 17952, 17956, 17960, 17964, 17968, 17972, 17976, 17980, 17984, 17988, 17992, 17996, 18000, 18004
 18008, 18012, 18016, 18020, 18024, 18028, 18032, 18036, 18040, 18044, 18048, 18052, 18056, 18060, 18064, 18068
 18072, 18076, 18080, 18084, 18088, 18092, 18096, 18100, 18104, 18108, 18112, 18116, 18120, 18124, 18128, 18132
 18136, 18140, 18144, 18148, 18152, 18156, 18160, 18164, 18168, 18172, 18176, 18180, 18184, 18188, 18192, 18196
 18200, 18204, 18208, 18212, 18216, 18220, 18224, 18228, 18232, 18236, 18240, 18244, 18248, 18252, 18256, 18260
 18264, 18268, 18272, 18276, 18280, 18284, 18288, 18292, 18296, 18300, 18304, 18308, 18312, 18316, 18320, 18324
 18328, 18332, 18336, 18340, 18344, 18348, 18352, 18356, 18360, 18364, 18368, 18372, 18376, 18380, 18384, 18388
 18392, 18396, 18400, 18404, 18408, 18412, 18416, 18420, 18424, 18428, 18432, 18436, 18440, 18444, 18448, 18452
 18456, 18460, 18464, 18468, 18472, 18476, 18480, 18484, 18488, 18492, 18496, 18500, 18504, 18508, 18512, 18516
 18520, 18524, 18528, 18532, 18536, 18540, 18544, 18548, 18552, 18556, 18560, 18564, 18568, 18572, 18576, 18580
 18584, 18588, 18592, 18596, 18600, 18604, 18608, 18612, 18616, 18620, 18624, 18628, 18632, 18636, 18640, 18644
 18648, 18652, 18656, 18660, 18664, 18668, 18672, 18676, 18680, 18684, 18688, 18692, 18696, 18700, 18704, 18708
 18712, 18716, 18720, 18724, 18728, 18732, 18736, 18740, 18744, 18748, 18752, 18756, 18760, 18764, 18768, 18772
 18776, 18780, 18784, 18788, 18792, 18796, 18800, 18804, 18808, 18812, 18816, 18820, 18824, 18828, 18832, 18836
** ... 64 like lines cut
*Nset, nset=_PickedSet440, internal, instance="Layered Soil Quarter-1"
    1,    3,    4,    6,    7,   10,   13,   15,   17,   20,   23,   24,   29,   32,   33,   39
   42,   43,   44,   45,   46,   47,   48,   49,   50,   51,   62,   63,   64,   65,   66,   67
   68,   69,   70,   72,   74,   75,   76,   77,   78,   79,   80,   81,   82,   83,   84,   85
   86,   87,   88,   89,   90,   91,   92,   93,   94,   95,   96,   97,   98,   99,  100,  101
  102,  103,  104,  105,  106,  107,  108,  109,  110,  111,  112,  113,  114,  115,  116,  117
  118,  119,  120,  121,  122,  147,  148,  149,  150,  151,  152,  153,  154,  155,  271,  272
  273,  274,  275,  276,  277,  278,  279,  280,  281,  282,  283,  284,  285,  286,  287,  288
  289,  290,  291,  292,  293,  294,  295,  296,  297,  298,  299,  300,  301,  302,  303,  304
  305,  306,  307,  308,  309,  310,  311,  312,  313,  314,  315,  316,  317,  318,  319,  393
  395,  396,  397,  398,  399,  400,  401,  410,  411,  412,  413,  414,  415,  416,  417,  418
  419,  420,  421,  422,  423,  511,  512,  513,  514,  515,  516,  517,  518,  519,  520,  521
  522,  523,  524,  525,  526,  527,  528,  529,  530,  531,  532,  533,  534,  535,  536,  537
  538,  539,  540,  541,  542,  543,  544,  545,  546,  547,  548,  549,  550,  551,  552,  553
  554,  555,  556,  557,  558,  559,  589,  590,  591,  592,  593,  594,  595,  596,  597,  598
  634,  635,  636,  637,  638,  639,  640,  641,  642,  643,  644,  645,  646,  647,  648,  649
  650,  651,  652,  653,  654,  655,  656,  657,  658,  659,  660,  661,  662,  663,  664,  665
  666,  667,  668,  669,  670,  671,  672,  673,  674,  675,  676,  677,  678,  679,  680,  681
  682,  756,  757,  758,  759,  760,  762,  930,  931,  932,  933,  934,  935,  936,  937,  938
  939,  940,  941,  942,  943,  944,  945, 1087, 1088, 1089, 1090, 1091, 1140, 1141, 1142, 1143
 1144, 1145, 1146, 1147, 1148, 2560, 2561, 2562, 2563, 2564, 2565, 2566, 2567, 2568, 2569, 2570
** ... 65 like lines cut
*Elset, elset=_PickedSet440, internal, instance="Layered Soil Quarter-1"
     1,     2,     3,     4,     5,    11,    12,    13,    14,    15,    16,    17,    18,    19,    20,    26
    27,    28,    29,    30,    31,    32,    33,    34,    35,    36,    37,    38,    39,    40,    41,    42
    43,    44,    45,    46,    47,    48,    49,    50,    51,    52,    53,    54,    55,    56,    57,    58
    59,    60,    61,    62,    63,    64,    65,    66,    67,    68,    69,    70,    71,    72,    73,    74
    75,    76,    77,    78,    79,    80,    81,    82,    83,    84,    85,    86,    87,    88,    89,    90
    91,    92,    93,    94,    95,    96,    97,    98,    99,   100,   101,   102,   103,   104,   105,   106
   107,   108,   109,   110,   111,   112,   113,   114,   115,   116,   117,   118,   119,   120,   121,   122
   123,   124,   125,   126,   127,   128,   129,   130,   131,   132,   133,   134,   135,   136,   137,   138
   139,   140,   141,   142,   143,   144,   145,   146,   147,   148,   149,   150,   151,   152,   153,   154
   155,   156,   157,   158,   159,   160,   161,   162,   163,   164,   165,   166,   167,   168,   169,   170
   171,   172,   173,   174,   175,   176,   177,   178,   179,   180,   181,   182,   183,   184,   185,   186
   187,   188,   189,   190,   191,   192,   193,   194,   195,   196,   197,   198,   199,   200,   201,   202
   203,   204,   205,   206,   207,   208,   209,   210,   211,   212,   213,   214,   215,   216,   217,   218
   219,   220,   221,   222,   223,   224,   225,   226,   227,   228,   229,   230,   231,   232,   233,   234
   235,   236,   237,   238,   239,   240,   241,   242,   243,   244,   245,   246,   247,   248,   249,   250
   251,   252,   253,   254,   255,   256,   257,   258,   259,   260,   261,   262,   263,   264,   265,   266
   267,   268,   269,   270,   271,   272,   273,   274,   275,  6281,  6282,  6283,  6284,  6285,  6286,  6287
  6288,  6289,  6290,  6291,  6292,  6293,  6294,  6295,  6296,  6297,  6298,  6299,  6300,  6301,  6302,  6303
  6304,  6305,  6306,  6307,  6308,  6309,  6310,  6311,  6312,  6313,  6314,  6315,  6316,  6317,  6318,  6319
  6320,  6321,  6322,  6323,  6324,  6325,  6326,  6327,  6328,  6329,  6330,  6331,  6332,  6333,  6334,  6335
** ... 60 like lines cut
*Nset, nset=_PickedSet441, internal, instance="Layered Soil Quarter-1"
    2,    3,    5,    6,    9,   12,   14,   15,   18,   19,   21,   24,   26,   27,   35,   38
   52,   53,   54,   55,   56,   57,   58,   59,   60,   61,   62,   63,   64,   65,   66,   67
   68,   69,   70,   73,  214,  215,  216,  217,  218,  219,  220,  221,  222,  223,  224,  225
  226,  227,  228,  229,  230,  231,  232,  233,  234,  235,  236,  237,  238,  239,  240,  241
  242,  243,  244,  245,  246,  369,  370,  371,  372,  373,  374,  375,  376,  377,  378,  379
  380,  381,  382,  383,  384,  385,  386,  387,  388,  389,  390,  391,  392,  402,  403,  404
  405,  406,  407,  408,  409,  410,  411,  412,  413,  414,  415,  416,  431,  432,  433,  434
  435,  436,  437,  560,  561,  562,  563,  564,  565,  566,  567,  568,  569,  570,  571,  572
  573,  574,  575,  576,  577,  578,  579,  580,  581,  582,  583,  584,  585,  586,  587,  588
  604,  605,  606,  607,  608,  610,  611,  612,  613,  614,  615,  616,  617,  618,  619,  620
  621,  622,  623,  624,  625,  626,  627,  628,  629,  630,  631,  632,  633,  756,  757,  758
  759,  760,  761,  812,  813,  814,  815,  816,  817,  818, 1082, 1083, 1084, 1085, 1086, 1130
 1131, 1132, 1133, 1134, 1135, 1136, 1137, 1138, 1158, 1159, 1160, 1161, 1162, 1163, 1164, 1165
 1166, 3442, 3443, 3444, 3445, 3446, 3447, 3448, 3449, 3450, 3451, 3452, 3453, 3454, 3455, 3456
 3457, 3458, 3459, 3460, 3461, 3462, 3463, 3464, 3465, 3466, 3467, 3468, 3469, 3470, 3471, 3472
 3473, 3474, 3475, 3476, 3477, 3478, 3479, 3480, 3481, 3482, 3483, 3484, 3485, 3486, 3487, 3488
 3489, 3490, 3491, 3492, 3493, 3494, 3495, 3496, 3497, 3498, 3499, 3500, 3501, 3502, 3503, 3504
 3505, 3506, 3507, 3508, 3509, 3510, 3511, 3512, 3513, 3514, 3515, 3516, 3517, 3518, 3519, 3520
 3521, 3522, 3523, 3524, 3525, 3526, 3527, 3528, 3529, 3530, 3531, 3532, 3533, 3534, 3535, 3536
 3537, 3538, 3539, 3540, 3541, 3542, 3543, 3544, 3545, 3546, 3547, 3548, 3549, 3550, 3551, 3552
** ... 26 like lines cut
*Elset, elset=_PickedSet441, internal, instance="Layered Soil Quarter-1"
     6,     7,     8,     9,    10,    11,    12,    13,    14,    15,    21,    22,    23,    24,    25,    26
    27,    28,    29,    30,  6156,  6157,  6158,  6159,  6160,  6161,  6162,  6163,  6164,  6165,  6166,  6167
  6168,  6169,  6170,  6171,  6172,  6173,  6174,  6175,  6176,  6177,  6178,  6179,  6180,  6181,  6182,  6183
  6184,  6185,  6186,  6187,  6188,  6189,  6190,  6191,  6192,  6193,  6194,  6195,  6196,  6197,  6198,  6199
  6200,  6201,  6202,  6203,  6204,  6205,  6206,  6207,  6208,  6209,  6210,  6211,  6212,  6213,  6214,  6215
  6216,  6217,  6218,  6219,  6220,  6221,  6222,  6223,  6224,  6225,  6226,  6227,  6228,  6229,  6230,  6231
  6232,  6233,  6234,  6235,  6236,  6237,  6238,  6239,  6240,  6241,  6242,  6243,  6244,  6245,  6246,  6247
  6248,  6249,  6250,  6251,  6252,  6253,  6254,  6255,  6256,  6257,  6258,  6259,  6260,  6261,  6262,  6263
  6264,  6265,  6266,  6267,  6268,  6269,  6270,  6271,  6272,  6273,  6274,  6275,  6276,  6277,  6278,  6279
  6280, 12416, 12417, 12418, 12419, 12420, 12421, 12422, 12423, 12424, 12425, 12426, 12427, 12428, 12429, 12430
 12431, 12432, 12433, 12434, 12435, 12436, 12437, 12438, 12439, 12440, 12441, 12442, 12443, 12444, 12445, 12446
 12447, 12448, 12449, 12450, 12451, 12452, 12453, 12454, 12455, 12456, 12457, 12458, 12459, 12460, 12461, 12462
 12463, 12464, 12465, 12466, 12467, 12468, 12469, 12470, 12471, 12472, 12473, 12474, 12475, 12476, 12477, 12478
 12479, 12480, 12481, 12482, 12483, 12484, 12485, 12486, 12487, 12488, 12489, 12490, 12491, 12492, 12493, 12494
 12495, 12496, 12497, 12498, 12499, 12500, 12501, 12502, 12503, 12504, 12505, 12506, 12507, 12508, 12509, 12510
 12511, 12512, 12513, 12514, 12515, 12516, 12517, 12518, 12519, 12520, 12521, 12522, 12523, 12524, 12525, 12526
 12527, 12528, 12529, 12530, 12531, 12532, 12533, 12534, 12535, 12536, 12537, 12538, 12539, 12540, 12545, 12546
 12547, 12548, 12549, 12550, 12551, 12552, 12553, 12554, 12555, 12556, 12561, 12562, 12563, 12564, 17465, 17466
 17467, 17468, 17469, 17470, 17471, 17472, 17473, 17474, 17475, 17476, 17477, 17478, 17479, 17480, 17481, 17482
 17483, 17484, 17485, 17486, 17487, 17488, 17489, 17490, 17491, 17492, 17493, 17494, 17495, 17496, 17497, 17498
** ... 22 like lines cut
*Elset, elset="_Soil Surface_S3", internal, instance="Layered Soil Quarter-1"
 26329, 30088, 30094
*Elset, elset="_Soil Surface_S4", internal, instance="Layered Soil Quarter-1"
 26328, 26334, 26337, 26340, 26343, 26346, 26349, 26352, 26355, 26358, 26361, 26364, 26367, 26370, 26373, 26376
 26379, 26382, 26385, 26388, 26391, 26394, 26397, 26400, 26403, 26406, 26409, 26412, 26415, 26418, 26421, 26424
 26427, 26430, 26433, 26436, 26439, 26442, 26445, 26448, 26451, 26454, 26457, 26460, 26463, 26466, 26469, 26472
 26475, 26478, 26481, 26484, 26487, 26490, 26493, 26496, 26499, 26502, 26505, 26508, 26511, 26514, 26517, 26520
 26523, 26526, 26529, 26532, 26535, 26538, 26541, 26544, 26547, 26550, 26553, 26556, 26559, 26562, 26565, 26568
 26571, 26574, 26577, 26580, 26583, 26586, 26589, 26592, 26595, 26598, 26601, 26604, 26607, 26610, 26613, 26616
 26619, 26622, 26625, 26628, 26631, 26634, 26637, 26640, 26643, 26646, 26649, 26652, 26655, 26658, 26661, 26664
 26667, 26670, 26673, 26676, 26679, 26682, 26685, 26688, 26691, 26694, 26697, 26700, 26703, 26706, 26709, 26712
 26715, 26718, 26721, 26724, 26727, 26730, 26733, 26736, 26739, 26742, 26745, 26748, 26751, 26754, 26757, 26760
 26763, 26766, 26769, 26772, 26775, 26778, 26781, 26784, 26787, 26790, 26793, 26796, 26799, 26802, 26805, 26808
 26811, 26814, 26817, 26820, 26823, 26826, 26829, 26832, 26835, 26838, 26841, 26844, 26847, 26850, 26853, 26856
 26859, 26862, 26865, 26868, 26871, 26874, 26877, 26880, 26883, 26886, 26889, 26892, 26895, 26898, 26901, 26904
 26907, 26910, 26913, 26916, 26919, 26922, 26925, 26928, 26931, 26934, 26937, 26940, 26943, 26946, 26949, 26952
 26955, 26958, 26961, 26964, 26967, 26970, 26973, 26976, 26979, 26982, 26985, 26988, 26991, 26994, 26997, 27000
 27003, 27006, 27009, 27012, 27015, 27018, 27021, 27024, 27027, 27030, 27033, 27036, 27039, 27042, 27045, 27048
 27051, 27054, 27057, 27060, 27063, 27066, 27069, 27072, 27075, 27078, 27081, 27084, 27087, 27090, 27093, 27096
 27099, 27102, 27105, 27108, 27111, 27114, 27117, 27120, 27123, 27126, 27129, 27132, 27135, 27138, 27141, 27144
 27147, 27150, 27153, 27156, 27159, 27162, 27165, 27168, 27171, 27174, 27177, 27180, 27183, 27186, 27189, 27192
 27195, 27198, 27201, 27204, 27207, 27210, 27213, 27216, 27219, 27222, 27225, 27228, 27231, 27234, 27237, 27240
 27243, 27246, 27249, 27252, 27255, 27258, 27261, 27264, 27267, 27270, 27273, 27276, 27279, 27282, 27285, 27288
** ... 59 like lines cut
*Surface, type=ELEMENT, name="Soil Surface"
"_Soil Surface_S3", S3
"_Soil Surface_S4", S4
*Elset, elset="_Tamper Bottom_S4", internal, instance="Tamper Quarter-1", generate
 26,  30,   2
*Elset, elset="_Tamper Bottom_S3", internal, instance="Tamper Quarter-1"
 31, 32, 33, 37, 38, 39, 43, 44, 45, 55, 57, 59
*Surface, type=ELEMENT, name="Tamper Bottom"
"_Tamper Bottom_S4", S4
"_Tamper Bottom_S3", S3
*End Assembly
** 
** MATERIALS
** 
*Material, name=Layer1
*Damping, alpha=0.1537, beta=0.016
*Density
1950.,
*Elastic
 5e+07, 0.35
*Mohr Coulomb
20.,5.
*Mohr Coulomb Hardening
15000.,0.
*Material, name=Layer2
*Damping, alpha=0.1537, beta=0.016
*Density
1900.,
*Elastic
 4e+07, 0.4
*Mohr Coulomb
15.,5.
*Mohr Coulomb Hardening
20000.,0.
*Material, name=Layer3
*Damping, alpha=0.1537, beta=0.016
*Density
1850.,
*Elastic
 1e+07, 0.3
*Mohr Coulomb
25.,5.
*Mohr Coulomb Hardening
5000.,0.
*Material, name=Steel
*Density
7850.,
*Elastic
 2e+11, 0.3
** 
** INTERACTION PROPERTIES
** 
*Surface Interaction, name=IntProp-1
*Friction
 0.3,
*Surface Behavior, pressure-overclosure=HARD
** 
** BOUNDARY CONDITIONS
** 
** Name: Bottom Type: Displacement/Rotation
*Boundary
_PickedSet439, 1, 1
_PickedSet439, 2, 2
_PickedSet439, 3, 3
** Name: Tamper Type: Displacement/Rotation
*Boundary
_PickedSet398, 1, 1
_PickedSet398, 2, 2
** Name: X-side Type: Displacement/Rotation
*Boundary
_PickedSet440, 1, 1
** Name: Y-side Type: Displacement/Rotation
*Boundary
_PickedSet441, 2, 2
** 
** PREDEFINED FIELDS
** 
** Name: Tamper Velocity   Type: Velocity
*Initial Conditions, type=VELOCITY
"Tamper Quarter-1"."Tamper Quarter", 3, -15.
** ----------------------------------------------------------------
** 
** STEP: DynamicExplicit
** 
*Step, name=DynamicExplicit, nlgeom=YES
*Dynamic, Explicit
, 2.
*Bulk Viscosity
0.06, 1.2
** 
** LOADS
** 
** Name: Gravity Load   Type: Gravity
*Dload
"Tamper Quarter-1"."Tamper Quarter", GRAV, 9.81, 0., 0., -1.
** 
** INTERACTIONS
** 
** Interaction: Int-1
*Contact Pair, interaction=IntProp-1, mechanical constraint=KINEMATIC, cpset=Int-1
"Tamper Bottom", "Soil Surface"
** 
** OUTPUT REQUESTS
** 
*Restart, write, number interval=1, time marks=NO
** 
** FIELD OUTPUT: F-Output-1
** 
*Output, field, time interval=0.01
*Node Output
A, U, V
*Element Output, directions=YES
LE, S
** 
** HISTORY OUTPUT: H-Output-1
** 
*Output, history, time interval=0.001
*Node Output, nset="Layered Soil Quarter-1".Surface-node
U1, U2, U3, UR1, UR2, UR3, V1, V2
V3, VR1, VR2, VR3
*End Step
